Version 4
SHEET 1 1380 1108
WIRE 112 128 32 128
WIRE 176 128 112 128
WIRE 992 224 928 224
WIRE 1024 224 992 224
WIRE 928 272 928 224
WIRE 176 288 176 128
WIRE 224 288 176 288
WIRE 816 288 800 288
WIRE 880 288 816 288
WIRE 96 304 -144 304
WIRE 176 304 176 288
WIRE -512 320 -528 320
WIRE -496 320 -512 320
WIRE -256 320 -272 320
WIRE -192 320 -256 320
WIRE 96 320 96 304
WIRE 128 320 96 320
WIRE -528 352 -528 320
WIRE 224 352 224 288
WIRE 224 352 176 352
WIRE 176 416 176 400
WIRE 272 416 176 416
WIRE 464 416 272 416
WIRE 928 416 928 352
WIRE 176 432 176 416
WIRE 832 432 800 432
WIRE 880 432 832 432
WIRE -144 448 -144 384
WIRE 96 448 96 320
WIRE 128 448 96 448
WIRE -240 464 -272 464
WIRE -192 464 -240 464
WIRE 224 480 176 480
WIRE 224 528 224 480
WIRE 224 528 176 528
WIRE 176 560 176 528
WIRE -544 624 -576 624
WIRE -512 624 -544 624
WIRE -576 656 -576 624
WIRE 80 656 -16 656
WIRE 128 656 80 656
WIRE -576 768 -576 736
WIRE 944 800 912 800
WIRE 960 800 944 800
WIRE 128 816 128 656
WIRE 176 816 128 816
WIRE 48 832 -192 832
WIRE 128 832 128 816
WIRE 912 832 912 800
WIRE -304 848 -320 848
WIRE -240 848 -304 848
WIRE 48 848 48 832
WIRE 80 848 48 848
WIRE 800 848 784 848
WIRE 864 848 800 848
WIRE 176 880 176 816
WIRE 176 880 128 880
WIRE 128 944 128 928
WIRE 224 944 128 944
WIRE 400 944 224 944
WIRE 128 960 128 944
WIRE -192 976 -192 912
WIRE 48 976 48 848
WIRE 80 976 48 976
WIRE 912 976 912 912
WIRE -288 992 -320 992
WIRE -240 992 -288 992
WIRE 816 992 784 992
WIRE 864 992 816 992
WIRE 176 1008 128 1008
WIRE 176 1056 176 1008
WIRE 176 1056 128 1056
WIRE 128 1088 128 1056
FLAG -576 768 0
FLAG -544 624 U
FLAG 176 560 0
FLAG 272 416 Vout1
FLAG -192 368 0
FLAG -240 464 U
FLAG -192 512 0
FLAG -144 528 0
FLAG 880 336 0
FLAG 832 432 Vout1
FLAG 880 480 0
FLAG 928 496 0
FLAG 816 288 U
FLAG 128 1088 0
FLAG 224 944 Vout2
FLAG -240 896 0
FLAG -288 992 U
FLAG -240 1040 0
FLAG -192 1056 0
FLAG 864 896 0
FLAG 816 992 Vout2
FLAG 864 1040 0
FLAG 912 1056 0
FLAG 800 848 U
FLAG -304 848 V2
FLAG -256 320 V1
FLAG 992 224 V1
FLAG 944 800 V2
FLAG -528 432 0
FLAG -512 320 supply
FLAG 112 128 supply
FLAG 80 656 supply
SYMBOL voltage -576 640 R0
WINDOW 123 0 0 Left 0
WINDOW 39 0 0 Left 0
SYMATTR InstName Vsweep
SYMATTR Value 1
SYMBOL pmos4 128 400 M180
WINDOW 3 67 142 Left 2
WINDOW 123 67 120 Left 2
SYMATTR Value EECMOSP
SYMATTR Value2 l=0.12u w=0.12u
SYMATTR InstName M5
SYMBOL nmos4 128 528 M180
WINDOW 3 115 71 Left 2
WINDOW 123 110 40 Left 2
SYMATTR Value EECMOSN
SYMATTR Value2 l=0.12u w=0.5u
SYMATTR InstName M1
SYMBOL e -144 288 R0
SYMATTR InstName E1
SYMATTR Value 0.707
SYMBOL e -144 432 R0
SYMATTR InstName E2
SYMATTR Value 0.707
SYMBOL e 928 256 R0
SYMATTR InstName E3
SYMATTR Value 1
SYMBOL e 928 400 R0
SYMATTR InstName E4
SYMATTR Value 1.414
SYMBOL pmos4 80 928 M180
WINDOW 3 108 105 Left 2
WINDOW 123 113 70 Left 2
SYMATTR Value EECMOSP
SYMATTR Value2 l=0.12u w=0.12u
SYMATTR InstName M2
SYMBOL nmos4 80 1056 M180
WINDOW 3 115 77 Left 2
WINDOW 123 56 48 Left 2
SYMATTR Value EECMOSN
SYMATTR Value2 l=0.12u w=0.5u
SYMATTR InstName M3
SYMBOL e -192 816 R0
SYMATTR InstName E5
SYMATTR Value 0.707
SYMBOL e -192 960 R0
SYMATTR InstName E6
SYMATTR Value -0.707
SYMBOL e 912 816 R0
SYMATTR InstName E7
SYMATTR Value -1
SYMBOL e 912 960 R0
SYMATTR InstName E8
SYMATTR Value 1.414
SYMBOL voltage -528 336 R0
WINDOW 123 0 0 Left 0
WINDOW 39 0 0 Left 0
SYMATTR InstName Vdc
SYMATTR Value {Vdd}
TEXT -592 16 Left 2 !.inc C:\\Users\\raffy\\Documents\\LTSpice projects\\low_p\\RIT_Models_For_LTSPICE.txt
TEXT -584 64 Left 2 !.dc Vsweep -0.707 0.013 0.01
TEXT -584 120 Left 2 !.meas DC hsnm_seevnick  MAX(0.707*V(v1)-0.707*V(v2))
TEXT -576 168 Left 2 ;.step param run 1 7000 1
TEXT -568 208 Left 2 !.param Vdd 1
TEXT -560 240 Left 2 !.save V(v1) V(v2)
